matpower5.0/caseMicro2k16ResultOpen.m
function mpc = caseMicro2k16
%CASE9    Power flow data for 9 bus, 3 generator case.
%   Please see CASEFORMAT for details on the case file format.
%
%   Based on data from Joe H. Chow's book, p. 70.

%   MATPOWER
%   $Id: case9.m 2408 2014-10-22 20:41:33Z ray $

%% MATPOWER Case Format : Version 2
mpc.version = '2';

%%-----  Power Flow Data  -----%%
%% system MVA base
mpc.baseMVA = 4;

%% bus data
%	bus_i	type	Pd	Qd	Gs	Bs	area	Vm	Va	baseKV	zone	Vmax	Vmin
mpc.bus = [
100	1	0	0	0	0	1	1.018767641	0	13.8	1	1.1	0.9
101	1	0	0	0	0	1	1.016803062	-0.052774883	13.8	1	1.1	0.9
102	2	0	0	0	0	1	1.016296755	-0.080345611	13.8	1	1.1	0.9
103	1	0	0	0	0	1	1.018019809	-0.08472918	13.8	1	1.1	0.9
104	1	1.10069012	0.196735405	0	0	1	1.019999367	-5.265254406	0.5	1	1.1	0.9
105	1	0	0	0	0	1	1.01118804	-0.156655593	13.8	1	1.1	0.9
106	1	0	0	0	0	1	1.019996769	-6.46927023	4.2	1	1.1	0.9
107	1	0	0	0	0	1	1.019996722	-11.90696749	0.5	1	1.1	0.9
201	1	0	0	0	0	1	1.01798579	0.044714429	13.8	1	1.1	0.9
202	1	0.878367982	0.097596442	0	0	1	0.981274357	2.828389594	0.5	1	1.1	0.9
203	1	0	0	0	0	1	1.018250737	0.135169517	13.8	1	1.1	0.9
204	1	0	0	0	0	1	1.00922763	0.322757371	13.8	1	1.1	0.9
205	1	0	0	0	0	1	1.01999628	-2.441765535	4.2	1	1.1	0.9
206	1	0.918957872	0.379095741	0	0	1	1.019999367	-3.98621156	0.5	1	1.1	0.9
207	1	0.302350104	0.145650322	0	0	2	1.019991188	-3.013851407	0.5	1	1.1	0.9
208	1	0	0	0	0	2	1.017165654	-0.000799132	13.8	1	1.1	0.9
209	1	0.878367982	0.097596442	0	0	2	1.019999367	-5.140788821	0.5	1	1.1	0.9
210	1	0.413603751	0.10616684	0	0	2	1.019999367	-2.371743177	0.5	1	1.1	0.9
301	1	0	0	0	0	2	1.017675833	-0.03608944	13.8	1	1.1	0.9
302	1	0	0	0	0	2	1.016961182	-0.070805347	13.8	1	1.1	0.9
303	1	0.852576102	0.155253902	0	0	2	1.019999367	-4.957227516	0.5	1	1.1	0.9
304	1	0.395403835	0.132597943	0	0	2	1.019999367	-2.292144016	13.8	1	1.1	0.9
305	1	0.415807388	0.198677957	0	0	2	1.019991188	-4.286465625	0.5	1	1.1	0.9
306	1	0	0	0	0	2	1.018444052	0.005145115	13.8	1	1.1	0.9
307	1	0	0	0	0	2	1.019999367	-3.531452648	0.5	1	1.1	0.9
1012	1	0.213892441	0.003316495	0	0	2	1.019999367	-4.592840037	0.5	1	1.1	0.9
1031	1	0	0	0	0	2	1.009703106	-0.181625631	13.8	1	1.1	0.9
1052	1	1.461067761	0.738232531	0	0	2	1.019991188	-13.68564224	0.5	1	1.1	0.9
1062	1	0.178243701	0.002763746	0	0	2	1.019991187	-3.930390205	0.2	1	1.1	0.9
1071	1	0	0	0	0	3	1	0	13.8	1	1.1	0.9
1072	1	0	0	0	0	3	1	0	0.5	1	1.1	0.9
2022	1	0.213892441	0.003316495	0	0	3	1.019999367	-4.189736867	0.2	1	1.1	0.9
2042	1	0.287543726	0.105181866	0	0	3	1.019999367	-5.557895093	0.5	1	1.1	0.9
2052	1	0.767428462	0.362241637	0	0	3	1.019991188	-7.788459173	0.5	1	1.1	0.9
2071	2	-4	-0.1	0	0	3	0.980000633	8.590814062	0.5	1	1.1	0.9
3031	1	0	0	0	0	3	1.017085774	-0.024881992	13.8	1	1.1	0.9
3042	1	0.682060882	0.124203122	0	0	3	1.019999367	-7.526534683	0.5	1	1.1	0.9
3051	1	0	0	0	0	3	1.017279692	-0.051207633	13.8	1	1.1	0.9
];

%% generator data
%	bus	Pg	Qg	Qmax	Qmin	Vg	mBase	status	Pmax	Pmin	Pc1	Pc2	Qc1min	Qc1max	Qc2min	Qc2max	ramp_agc	ramp_10	ramp_30	ramp_q	apf
mpc.gen = [
	100	5.303008	5.53252	9	-9	1.018767641	4	1	9	0	0	0	0	0	0	0	0	0	0	0	0
103	0.64262	0.468768	4	-4	1.018019809	4	1	4	0	0	0	0	0	0	0	0	0	0	0	0
202	1.371676	0.10274	0.1	-0.1	0.981274357	4	1	2.4	0	0	0	0	0	0	0	0	0	0	0	0
306	0.972044	0.058072	3.5	-3.5	1.018444052	4	1	3.5	0	0	0	0	0	0	0	0	0	0	0	0
];

%% branch data
%	fbus	tbus	r	x	b	rateA	rateB	rateC	ratio	angle	status	angmin	angmax
mpc.branch = [
100	101	0.001111531	0.001761815	0.000291365	250	250	250	0	0	1	-360	360
100	201	0.001111531	0.001761815	0.000291365	250	250	250	0	0	1	-360	360
100	301	0.001111531	0.001761815	0.000291365	250	250	250	0	0	1	-360	360
101	102	0.001111531	0.001761815	0.000291365	250	250	250	0	0	1	-360	360
101	105	0.003396345	0.005383323	0.000890283	250	250	250	0	0	1	-360	360
101	103	0.006742281	0.001327452	0.000119353	250	250	250	0	0	1	-360	360
101	1071	0.001143025	0.001811733	0.000299621	250	250	250	0	0	1	-360	360
1072	307	1.020833333	1.618055556	3.91669E-07	250	250	250	0	0	1	-360	360
105	204	0.001852552	0.002936358	0.000485609	250	250	250	0	0	1	-360	360
105	1031	0.000926276	0.001468179	0.000242804	250	250	250	0	0	1	-360	360
106	205	0.006795488	0.01077108	1.47094E-05	250	250	250	0	0	1	-360	360
104	206	0.255208333	0.404513889	9.79173E-08	250	250	250	0	0	1	-360	360
201	204	0.037082546	0.007300987	0.000656443	250	250	250	0	0	1	-360	360
201	203	0.001235035	0.001957572	0.000323739	250	250	250	0	0	1	-360	360
201	208	0.001852552	0.002936358	0.000485609	250	250	250	0	0	1	-360	360
210	303	0.3828125	0.606770833	1.46876E-07	250	250	250	0	0	1	-360	360
209	304	0.3828125	0.606770833	1.46876E-07	250	250	250	0	0	1	-360	360
207	305	0.3828125	0.606770833	1.46876E-07	250	250	250	0	0	1	-360	360
301	302	0.001543793	0.002446965	0.000404674	250	250	250	0	0	1	-360	360
301	306	0.013484562	0.002654904	0.000238706	250	250	250	0	0	1	-360	360
301	3051	0.001235035	0.001957572	0.000323739	250	250	250	0	0	1	-360	360
301	3031	0.005056711	0.000995589	8.95149E-05	250	250	250	0	0	1	-360	360
102	1012	0.319936019	1.567686494	0	250	250	250	0	0	1	-360	360
102	104	0.05512838	0.363847306	0	250	250	250	0	0	1	-360	360
1031	106	0.017709773	0.201891411	0	250	250	250	0	0	1	-360	360
106	107	0.095729516	0.449928727	0	250	250	250	0	0	1	-360	360
106	1052	0.095729516	0.449928727	0	250	250	250	0	0	1	-360	360
105	1062	0.319936019	1.567686494	0	250	250	250	0	0	1	-360	360
1071	1072	0.05512838	0.363847306	0	250	250	250	0	0	1	-360	360
202	204	0.05512838	0.363847306	0	250	250	250	0	0	1	-360	360
204	2022	0.319936019	1.567686494	0	250	250	250	0	0	1	-360	360
204	205	0.017709773	0.201891411	0	250	250	250	0	0	1	-360	360
205	2042	0.212611794	0.895095651	0	250	250	250	0	0	1	-360	360
205	2052	0.119366221	0.601605754	0	250	250	250	0	0	1	-360	360
203	206	0.05512838	0.363847306	0	250	250	250	0	0	1	-360	360
203	2071	0.031993602	0.156768649	0	250	250	250	0	0	1	-360	360
208	209	0.095729516	0.449928727	0	250	250	250	0	0	1	-360	360
208	210	0.095729516	0.449928727	0	250	250	250	0	0	1	-360	360
203	207	0.212611794	0.895095651	0	250	250	250	0	0	1	-360	360
302	303	0.095729516	0.449928727	0	250	250	250	0	0	1	-360	360
302	304	0.095729516	0.449928727	0	250	250	250	0	0	1	-360	360
3031	305	0.212611794	0.895095651	0	250	250	250	0	0	1	-360	360
306	3042	0.212611794	0.895095651	0	250	250	250	0	0	1	-360	360
3051	307	0.05512838	0.363847306	0	250	250	250	0	0	1	-360	360
];

%%-----  OPF Data  -----%%
%% generator cost data
%	1	startup	shutdown	n	x1	y1	...	xn	yn
%	2	startup	shutdown	n	c(n-1)	...	c0
mpc.gencost = [
	2	2000	0	3	0.11	5	150;
	2	2000	0	3	0.085	5	150;
   	2	2000	0	3	0.11	5	150;
	2	2000	0	3	0.085	5	150;
];
